  Version,8.6;

  SimulationControl,
    No,                      !- Do Zone Sizing Calculation
    No,                      !- Do System Sizing Calculation
    No,                      !- Do Plant Sizing Calculation
    No,                      !- Run Simulation for Sizing Periods
    Yes;                     !- Run Simulation for Weather File Run Periods

  Building,
    Building,                !- Name
    0.0,                     !- North Axis {deg}
    Suburbs,                 !- Terrain
    0.04,                    !- Loads Convergence Tolerance Value
    0.4,                     !- Temperature Convergence Tolerance Value {deltaC}
    FullExteriorWithReflections,  !- Solar Distribution
    25,                      !- Maximum Number of Warmup Days
    6;                       !- Minimum Number of Warmup Days

  ShadowCalculation,
    AverageOverDaysInFrequency,  !- Calculation Method
    20,                      !- Calculation Frequency
    15000,                   !- Maximum Figures in Shadow Overlap Calculations
    SutherlandHodgman,       !- Polygon Clipping Algorithm
    SimpleSkyDiffuseModeling;!- Sky Diffuse Modeling Algorithm

  SurfaceConvectionAlgorithm:Inside,TARP;

  SurfaceConvectionAlgorithm:Outside,DOE-2;

  HeatBalanceAlgorithm,ConductionTransferFunction,2000.0;

  ZoneCapacitanceMultiplier:ResearchSpecial,
    1.0,                     !- Temperature Capacity Multiplier
    1.0,                     !- Humidity Capacity Multiplier
    1.0,                     !- Carbon Dioxide Capacity Multiplier
    1.0;                     !- Generic Contaminant Capacity Multiplier

  Timestep,1;

  ConvergenceLimits,
    1,                       !- Minimum System Timestep {minutes}
    20;                      !- Maximum HVAC Iterations

  Site:Location,
    Shoe Box Geneva Office (01-01:31-12)  (01-01:31-12),  !- Name
    46.25,                   !- Latitude {deg}
    6.13,                    !- Longitude {deg}
    1.0,                     !- Time Zone {hr}
    416.0;                   !- Elevation {m}

  RunPeriod,
    Shoe Box Geneva Office (01-01:31-12),  !- Name
    1,                       !- Begin Month
    1,                       !- Begin Day of Month
    12,                      !- End Month
    31,                      !- End Day of Month
    UseWeatherFile,          !- Day of Week for Start Day
    No,                      !- Use Weather File Holidays and Special Days
    No,                      !- Use Weather File Daylight Saving Period
    Yes,                     !- Apply Weekend Holiday Rule
    Yes,                     !- Use Weather File Rain Indicators
    Yes,                     !- Use Weather File Snow Indicators
    1;                       !- Number of Times Runperiod to be Repeated

  RunPeriodControl:DaylightSavingTime,
    Last Sunday in March,    !- Start Date
    Last Sunday in October;  !- End Date

  Site:GroundTemperature:BuildingSurface,18.0,18.0,18.0,18.0,18.0,18.0,18.0,18.0,18.0,18.0,18.0,18.0;

  Site:GroundTemperature:FCfactorMethod,2.79,2.05,3.37,5.43,10.84,15.02,17.83,18.69,17.23,13.99,9.66,5.64;

  Site:GroundTemperature:Shallow,14.0,14.0,14.0,14.0,14.0,14.0,14.0,14.0,14.0,14.0,14.0,14.0;

  Site:GroundTemperature:Deep,14.0,14.0,14.0,14.0,14.0,14.0,14.0,14.0,14.0,14.0,14.0,14.0;

  Site:GroundReflectance,0.2,0.2,0.2,0.2,0.2,0.2,0.2,0.2,0.2,0.2,0.2,0.2;

  Site:GroundReflectance:SnowModifier,
    2.0,                     !- Ground Reflected Solar Modifier
    2.0;                     !- Daylighting Ground Reflected Solar Modifier

  ScheduleTypeLimits,
    Any Number;              !- Name

  ScheduleTypeLimits,
    Fraction,                !- Name
    0.0,                     !- Lower Limit Value
    1.0,                     !- Upper Limit Value
    CONTINUOUS;              !- Numeric Type

  ScheduleTypeLimits,
    Temperature,             !- Name
    -60,                     !- Lower Limit Value
    200,                     !- Upper Limit Value
    CONTINUOUS;              !- Numeric Type

  ScheduleTypeLimits,
    Control Type,            !- Name
    0,                       !- Lower Limit Value
    4,                       !- Upper Limit Value
    DISCRETE;                !- Numeric Type

  ScheduleTypeLimits,
    On/Off,                  !- Name
    0,                       !- Lower Limit Value
    1,                       !- Upper Limit Value
    DISCRETE;                !- Numeric Type

  Schedule:Day:Hourly,
    0,                       !- Name
    Any Number,              !- Schedule Type Limits Name
    0.0,                     !- Hour 1
    0.0,                     !- Hour 2
    0.0,                     !- Hour 3
    0.0,                     !- Hour 4
    0.0,                     !- Hour 5
    0.0,                     !- Hour 6
    0.0,                     !- Hour 7
    0.0,                     !- Hour 8
    0.0,                     !- Hour 9
    0.0,                     !- Hour 10
    0.0,                     !- Hour 11
    0.0,                     !- Hour 12
    0.0,                     !- Hour 13
    0.0,                     !- Hour 14
    0.0,                     !- Hour 15
    0.0,                     !- Hour 16
    0.0,                     !- Hour 17
    0.0,                     !- Hour 18
    0.0,                     !- Hour 19
    0.0,                     !- Hour 20
    0.0,                     !- Hour 21
    0.0,                     !- Hour 22
    0.0,                     !- Hour 23
    0.0;                     !- Hour 24

  Schedule:Day:Hourly,
    50,                      !- Name
    Any Number,              !- Schedule Type Limits Name
    50.0,                    !- Hour 1
    50.0,                    !- Hour 2
    50.0,                    !- Hour 3
    50.0,                    !- Hour 4
    50.0,                    !- Hour 5
    50.0,                    !- Hour 6
    50.0,                    !- Hour 7
    50.0,                    !- Hour 8
    50.0,                    !- Hour 9
    50.0,                    !- Hour 10
    50.0,                    !- Hour 11
    50.0,                    !- Hour 12
    50.0,                    !- Hour 13
    50.0,                    !- Hour 14
    50.0,                    !- Hour 15
    50.0,                    !- Hour 16
    50.0,                    !- Hour 17
    50.0,                    !- Hour 18
    50.0,                    !- Hour 19
    50.0,                    !- Hour 20
    50.0,                    !- Hour 21
    50.0,                    !- Hour 22
    50.0,                    !- Hour 23
    50.0;                    !- Hour 24

  Schedule:Day:Hourly,
    Off,                     !- Name
    Fraction,                !- Schedule Type Limits Name
    0.0,                     !- Hour 1
    0.0,                     !- Hour 2
    0.0,                     !- Hour 3
    0.0,                     !- Hour 4
    0.0,                     !- Hour 5
    0.0,                     !- Hour 6
    0.0,                     !- Hour 7
    0.0,                     !- Hour 8
    0.0,                     !- Hour 9
    0.0,                     !- Hour 10
    0.0,                     !- Hour 11
    0.0,                     !- Hour 12
    0.0,                     !- Hour 13
    0.0,                     !- Hour 14
    0.0,                     !- Hour 15
    0.0,                     !- Hour 16
    0.0,                     !- Hour 17
    0.0,                     !- Hour 18
    0.0,                     !- Hour 19
    0.0,                     !- Hour 20
    0.0,                     !- Hour 21
    0.0,                     !- Hour 22
    0.0,                     !- Hour 23
    0.0;                     !- Hour 24

  Schedule:Day:Hourly,
    Summer Control Type Day Sch,  !- Name
    Control Type,            !- Schedule Type Limits Name
    4.0,                     !- Hour 1
    4.0,                     !- Hour 2
    4.0,                     !- Hour 3
    4.0,                     !- Hour 4
    4.0,                     !- Hour 5
    4.0,                     !- Hour 6
    4.0,                     !- Hour 7
    4.0,                     !- Hour 8
    4.0,                     !- Hour 9
    4.0,                     !- Hour 10
    4.0,                     !- Hour 11
    4.0,                     !- Hour 12
    4.0,                     !- Hour 13
    4.0,                     !- Hour 14
    4.0,                     !- Hour 15
    4.0,                     !- Hour 16
    4.0,                     !- Hour 17
    4.0,                     !- Hour 18
    4.0,                     !- Hour 19
    4.0,                     !- Hour 20
    4.0,                     !- Hour 21
    4.0,                     !- Hour 22
    4.0,                     !- Hour 23
    4.0;                     !- Hour 24

  Schedule:Day:Hourly,
    Winter Control Type Day Sch,  !- Name
    Control Type,            !- Schedule Type Limits Name
    4.0,                     !- Hour 1
    4.0,                     !- Hour 2
    4.0,                     !- Hour 3
    4.0,                     !- Hour 4
    4.0,                     !- Hour 5
    4.0,                     !- Hour 6
    4.0,                     !- Hour 7
    4.0,                     !- Hour 8
    4.0,                     !- Hour 9
    4.0,                     !- Hour 10
    4.0,                     !- Hour 11
    4.0,                     !- Hour 12
    4.0,                     !- Hour 13
    4.0,                     !- Hour 14
    4.0,                     !- Hour 15
    4.0,                     !- Hour 16
    4.0,                     !- Hour 17
    4.0,                     !- Hour 18
    4.0,                     !- Hour 19
    4.0,                     !- Hour 20
    4.0,                     !- Hour 21
    4.0,                     !- Hour 22
    4.0,                     !- Hour 23
    4.0;                     !- Hour 24

  Schedule:Day:Hourly,
    Summer Control Type Day Sch - cool,  !- Name
    Control Type,            !- Schedule Type Limits Name
    2.0,                     !- Hour 1
    2.0,                     !- Hour 2
    2.0,                     !- Hour 3
    2.0,                     !- Hour 4
    2.0,                     !- Hour 5
    2.0,                     !- Hour 6
    2.0,                     !- Hour 7
    2.0,                     !- Hour 8
    2.0,                     !- Hour 9
    2.0,                     !- Hour 10
    2.0,                     !- Hour 11
    2.0,                     !- Hour 12
    2.0,                     !- Hour 13
    2.0,                     !- Hour 14
    2.0,                     !- Hour 15
    2.0,                     !- Hour 16
    2.0,                     !- Hour 17
    2.0,                     !- Hour 18
    2.0,                     !- Hour 19
    2.0,                     !- Hour 20
    2.0,                     !- Hour 21
    2.0,                     !- Hour 22
    2.0,                     !- Hour 23
    2.0;                     !- Hour 24

  Schedule:Day:Hourly,
    Winter Control Type Day Sch - heat,  !- Name
    Control Type,            !- Schedule Type Limits Name
    1.0,                     !- Hour 1
    1.0,                     !- Hour 2
    1.0,                     !- Hour 3
    1.0,                     !- Hour 4
    1.0,                     !- Hour 5
    1.0,                     !- Hour 6
    1.0,                     !- Hour 7
    1.0,                     !- Hour 8
    1.0,                     !- Hour 9
    1.0,                     !- Hour 10
    1.0,                     !- Hour 11
    1.0,                     !- Hour 12
    1.0,                     !- Hour 13
    1.0,                     !- Hour 14
    1.0,                     !- Hour 15
    1.0,                     !- Hour 16
    1.0,                     !- Hour 17
    1.0,                     !- Hour 18
    1.0,                     !- Hour 19
    1.0,                     !- Hour 20
    1.0,                     !- Hour 21
    1.0,                     !- Hour 22
    1.0,                     !- Hour 23
    1.0;                     !- Hour 24

  Schedule:Week:Daily,
    Off,                     !- Name
    Off,                     !- Sunday Schedule:Day Name
    Off,                     !- Monday Schedule:Day Name
    Off,                     !- Tuesday Schedule:Day Name
    Off,                     !- Wednesday Schedule:Day Name
    Off,                     !- Thursday Schedule:Day Name
    Off,                     !- Friday Schedule:Day Name
    Off,                     !- Saturday Schedule:Day Name
    Off,                     !- Holiday Schedule:Day Name
    Off,                     !- SummerDesignDay Schedule:Day Name
    Off,                     !- WinterDesignDay Schedule:Day Name
    Off,                     !- CustomDay1 Schedule:Day Name
    Off;                     !- CustomDay2 Schedule:Day Name

  Schedule:Week:Daily,
    Summer Control Type Week Sch,  !- Name
    Summer Control Type Day Sch,  !- Sunday Schedule:Day Name
    Summer Control Type Day Sch,  !- Monday Schedule:Day Name
    Summer Control Type Day Sch,  !- Tuesday Schedule:Day Name
    Summer Control Type Day Sch,  !- Wednesday Schedule:Day Name
    Summer Control Type Day Sch,  !- Thursday Schedule:Day Name
    Summer Control Type Day Sch,  !- Friday Schedule:Day Name
    Summer Control Type Day Sch,  !- Saturday Schedule:Day Name
    Summer Control Type Day Sch,  !- Holiday Schedule:Day Name
    Summer Control Type Day Sch,  !- SummerDesignDay Schedule:Day Name
    Summer Control Type Day Sch,  !- WinterDesignDay Schedule:Day Name
    Summer Control Type Day Sch,  !- CustomDay1 Schedule:Day Name
    Summer Control Type Day Sch;  !- CustomDay2 Schedule:Day Name

  Schedule:Week:Daily,
    Winter Control Type Week Sch,  !- Name
    Winter Control Type Day Sch,  !- Sunday Schedule:Day Name
    Winter Control Type Day Sch,  !- Monday Schedule:Day Name
    Winter Control Type Day Sch,  !- Tuesday Schedule:Day Name
    Winter Control Type Day Sch,  !- Wednesday Schedule:Day Name
    Winter Control Type Day Sch,  !- Thursday Schedule:Day Name
    Winter Control Type Day Sch,  !- Friday Schedule:Day Name
    Winter Control Type Day Sch,  !- Saturday Schedule:Day Name
    Winter Control Type Day Sch,  !- Holiday Schedule:Day Name
    Winter Control Type Day Sch,  !- SummerDesignDay Schedule:Day Name
    Winter Control Type Day Sch,  !- WinterDesignDay Schedule:Day Name
    Winter Control Type Day Sch,  !- CustomDay1 Schedule:Day Name
    Winter Control Type Day Sch;  !- CustomDay2 Schedule:Day Name

  Schedule:Week:Daily,
    Summer Control Type Week Sch - cool,  !- Name
    Summer Control Type Day Sch - cool,  !- Sunday Schedule:Day Name
    Summer Control Type Day Sch - cool,  !- Monday Schedule:Day Name
    Summer Control Type Day Sch - cool,  !- Tuesday Schedule:Day Name
    Summer Control Type Day Sch - cool,  !- Wednesday Schedule:Day Name
    Summer Control Type Day Sch - cool,  !- Thursday Schedule:Day Name
    Summer Control Type Day Sch - cool,  !- Friday Schedule:Day Name
    Summer Control Type Day Sch - cool,  !- Saturday Schedule:Day Name
    Summer Control Type Day Sch - cool,  !- Holiday Schedule:Day Name
    Summer Control Type Day Sch - cool,  !- SummerDesignDay Schedule:Day Name
    Summer Control Type Day Sch - cool,  !- WinterDesignDay Schedule:Day Name
    Summer Control Type Day Sch - cool,  !- CustomDay1 Schedule:Day Name
    Summer Control Type Day Sch - cool;  !- CustomDay2 Schedule:Day Name

  Schedule:Week:Daily,
    Winter Control Type Week Sch - heat,  !- Name
    Winter Control Type Day Sch - heat,  !- Sunday Schedule:Day Name
    Winter Control Type Day Sch - heat,  !- Monday Schedule:Day Name
    Winter Control Type Day Sch - heat,  !- Tuesday Schedule:Day Name
    Winter Control Type Day Sch - heat,  !- Wednesday Schedule:Day Name
    Winter Control Type Day Sch - heat,  !- Thursday Schedule:Day Name
    Winter Control Type Day Sch - heat,  !- Friday Schedule:Day Name
    Winter Control Type Day Sch - heat,  !- Saturday Schedule:Day Name
    Winter Control Type Day Sch - heat,  !- Holiday Schedule:Day Name
    Winter Control Type Day Sch - heat,  !- SummerDesignDay Schedule:Day Name
    Winter Control Type Day Sch - heat,  !- WinterDesignDay Schedule:Day Name
    Winter Control Type Day Sch - heat,  !- CustomDay1 Schedule:Day Name
    Winter Control Type Day Sch - heat;  !- CustomDay2 Schedule:Day Name

  Schedule:Year,
    Zone Control Type Sched, !- Name
    Control Type,            !- Schedule Type Limits Name
    Winter Control Type Week Sch,  !- Schedule:Week Name 1
    1,                       !- Start Month 1
    1,                       !- Start Day 1
    3,                       !- End Month 1
    31,                      !- End Day 1
    Summer Control Type Week Sch,  !- Schedule:Week Name 2
    4,                       !- Start Month 2
    1,                       !- Start Day 2
    9,                       !- End Month 2
    30,                      !- End Day 2
    Winter Control Type Week Sch,  !- Schedule:Week Name 3
    10,                      !- Start Month 3
    1,                       !- Start Day 3
    12,                      !- End Month 3
    31;                      !- End Day 3

  Schedule:Compact,
    On,                      !- Name
    Any Number,              !- Schedule Type Limits Name
    Through: 12/31,          !- Field 1
    For: AllDays,            !- Field 2
    Until: 24:00,1;          !- Field 3

  Schedule:Compact,
    Off,                     !- Name
    Any Number,              !- Schedule Type Limits Name
    Through: 12/31,          !- Field 1
    For: AllDays,            !- Field 2
    Until: 24:00,0;          !- Field 3

  Schedule:Compact,
    Work efficiency,         !- Name
    Any Number,              !- Schedule Type Limits Name
    Through: 12/31,          !- Field 1
    For: AllDays,            !- Field 2
    Until: 24:00,0;          !- Field 3

  Schedule:Compact,
    OpaqueShade,             !- Name
    Any Number,              !- Schedule Type Limits Name
    Through: 12/31,          !- Field 1
    For: AllDays,            !- Field 2
    Until: 24:00,0;          !- Field 3

  Schedule:Compact,
    Zone Comfort Control Type Sched,  !- Name
    Control Type,            !- Schedule Type Limits Name
    Through: 12/31,          !- Field 1
    For: AllDays,            !- Field 2
    Until: 24:00,4;          !- Field 3

  Schedule:Compact,
    Design Days Only,        !- Name
    Any Number,              !- Schedule Type Limits Name
    Through: 12/31,          !- Field 1
    For: SummerDesignDay WinterDesignDay, !- Field 2
    Until: 24:00,1,          !- Field 3
    For: AllOtherDays,       !- Field 5
    Until: 24:00,0;          !- Field 6

  Schedule:Compact,
    TypOperativeTempControlSch,  !- Name
    Temperature,             !- Schedule Type Limits Name
    Through: 31 Dec,         !- Field 1
    For: SummerDesignDay WinterDesignDay, !- Field 2
    Until: 24:00,0.0,        !- Field 3
    For: AllOtherDays,       !- Field 5
    Until: 24:00,0.5;        !- Field 6

  Schedule:Compact,
    AirVelocitySchedule,     !- Name
    Any Number,              !- Schedule Type Limits Name
    Through: 12/31,          !- Field 1
    For: AllDays,            !- Field 2
    Until: 24:00,.137;       !- Field 3

  Schedule:Compact,
    Office_OpenOff_Occ,      !- Name
    Fraction,                !- Schedule Type Limits Name
    Through: 31 Dec,         !- Field 1
    For: Weekdays SummerDesignDay, !- Field 2
    Until: 07:00,0,          !- Field 3
    Until: 08:00,0.25,       !- Field 5
    Until: 09:00,0.5,        !- Field 7
    Until: 12:00,1,          !- Field 9
    Until: 14:00,0.75,       !- Field 11
    Until: 17:00,1,          !- Field 13
    Until: 18:00,0.5,        !- Field 15
    Until: 19:00,0.25,       !- Field 17
    Until: 24:00,0,          !- Field 19
    For: Weekends,           !- Field 21
    Until: 24:00,0,          !- Field 22
    For: Holidays,           !- Field 24
    Until: 24:00,0,          !- Field 25
    For: WinterDesignDay AllOtherDays, !- Field 27
    Until: 24:00,0;          !- Field 28

  Schedule:Compact,
    Office_OpenOff_Equip,    !- Name
    Fraction,                !- Schedule Type Limits Name
    Through: 31 Dec,         !- Field 1
    For: Weekdays SummerDesignDay, !- Field 2
    Until: 07:00,0.05,       !- Field 3
    Until: 20:00,1,          !- Field 5
    Until: 24:00,0.05,       !- Field 7
    For: Weekends,           !- Field 9
    Until: 24:00,0.05,       !- Field 10
    For: Holidays,           !- Field 12
    Until: 24:00,0.05,       !- Field 13
    For: WinterDesignDay AllOtherDays, !- Field 15
    Until: 24:00,0;          !- Field 16

  Schedule:Compact,
    Office_OpenOff_Light,    !- Name
    Fraction,                !- Schedule Type Limits Name
    Through: 31 Dec,         !- Field 1
    For: Weekdays SummerDesignDay, !- Field 2
    Until: 07:00,0,          !- Field 3
    Until: 19:00,1,          !- Field 5
    Until: 24:00,0,          !- Field 7
    For: Weekends,           !- Field 9
    Until: 24:00,0,          !- Field 10
    For: Holidays,           !- Field 12
    Until: 24:00,0,          !- Field 13
    For: WinterDesignDay AllOtherDays, !- Field 15
    Until: 24:00,0;          !- Field 16

  Schedule:Compact,
    20001,                   !- Name
    Any Number,              !- Schedule Type Limits Name
    Through: 12/31,          !- Field 1
    For: Weekdays Weekends SummerDesignDays, !- Field 2
    Until: 24:00,24,         !- Field 3
    For: WinterDesignDays,   !- Field 5
    Until: 24:00,0,          !- Field 6
    For: AllOtherDays,       !- Field 8
    Until: 24:00,24;         !- Field 9

  Schedule:Compact,
    Activity Schedule 102,   !- Name
    Any Number,              !- Schedule Type Limits Name
    Through: 12/31,          !- Field 1
    For: AllDays,            !- Field 2
    Until: 24:00,110.7;      !- Field 3

  Schedule:Compact,
    Clothing Schedule 102,   !- Name
    Any Number,              !- Schedule Type Limits Name
    Through: 4/1,            !- Field 1
    For: AllDays,            !- Field 2
    Until: 24:00,1,          !- Field 3
    Through: 9/30,           !- Field 5
    For: AllDays,            !- Field 6
    Until: 24:00,.5,         !- Field 7
    Through: 12/31,          !- Field 9
    For: AllDays,            !- Field 10
    Until: 24:00,1;          !- Field 11

  Schedule:Compact,
    DHW Supply Temperature Block1:Zone1,  !- Name
    Temperature,             !- Schedule Type Limits Name
    Through: 12/31,          !- Field 1
    For: AllDays,            !- Field 2
    Until: 24:00,65;         !- Field 3

  Schedule:Compact,
    DHW Mains Temperature Block1:Zone1,  !- Name
    Temperature,             !- Schedule Type Limits Name
    Through: 12/31,          !- Field 1
    For: AllDays,            !- Field 2
    Until: 24:00,10;         !- Field 3

  Schedule:Compact,
    Block1:Zone1 Heating Setpoint Schedule,  !- Name
    Temperature,             !- Schedule Type Limits Name
    Through: 31 Dec,         !- Field 1
    For: Weekdays SummerDesignDay WinterDesignDay, !- Field 2
    Until: 05:00,10,         !- Field 3
    Until: 19:00,21,         !- Field 5
    Until: 24:00,10,         !- Field 7
    For: Weekends,           !- Field 9
    Until: 24:00,10,         !- Field 10
    For: Holidays,           !- Field 12
    Until: 24:00,10,         !- Field 13
    For: AllOtherDays,       !- Field 15
    Until: 24:00,10;         !- Field 16

  Schedule:Compact,
    Block1:Zone1 Heating Availability Sch,  !- Name
    Temperature,             !- Schedule Type Limits Name
    Through: 31 Dec,         !- Field 1
    For: Weekdays SummerDesignDay WinterDesignDay, !- Field 2
    Until: 05:00,1,          !- Field 3
    Until: 19:00,1,          !- Field 5
    Until: 24:00,1,          !- Field 7
    For: Weekends,           !- Field 9
    Until: 24:00,1,          !- Field 10
    For: Holidays,           !- Field 12
    Until: 24:00,1,          !- Field 13
    For: AllOtherDays,       !- Field 15
    Until: 24:00,1;          !- Field 16

  Schedule:Compact,
    Block1:Zone1 Cooling SP Sch,  !- Name
    Temperature,             !- Schedule Type Limits Name
    Through: 31 Dec,         !- Field 1
    For: Weekdays SummerDesignDay, !- Field 2
    Until: 05:00,100,        !- Field 3
    Until: 19:00,25,         !- Field 5
    Until: 24:00,100,        !- Field 7
    For: Weekends,           !- Field 9
    Until: 24:00,100,        !- Field 10
    For: Holidays,           !- Field 12
    Until: 24:00,100,        !- Field 13
    For: WinterDesignDay AllOtherDays, !- Field 15
    Until: 24:00,100;        !- Field 16

  Schedule:Compact,
    Block1:Zone1 Cooling Availability Sch,  !- Name
    Temperature,             !- Schedule Type Limits Name
    Through: 31 Dec,         !- Field 1
    For: Weekdays SummerDesignDay, !- Field 2
    Until: 05:00,0,          !- Field 3
    Until: 19:00,1,          !- Field 5
    Until: 24:00,0,          !- Field 7
    For: Weekends,           !- Field 9
    Until: 24:00,0,          !- Field 10
    For: Holidays,           !- Field 12
    Until: 24:00,0,          !- Field 13
    For: WinterDesignDay AllOtherDays, !- Field 15
    Until: 24:00,0;          !- Field 16

  Material,
    Urea Formaldehyde Foam_0.1327,  !- Name
    Rough,                   !- Roughness
    0.1327,                  !- Thickness {m}
    0.04,                    !- Conductivity {W/m-K}
    10.0,                    !- Density {kg/m3}
    1400.0,                  !- Specific Heat {J/kg-K}
    0.9,                     !- Thermal Absorptance
    0.6,                     !- Solar Absorptance
    0.6;                     !- Visible Absorptance

  Material,
    Cast Concrete_0.1,       !- Name
    Rough,                   !- Roughness
    0.1,                     !- Thickness {m}
    1.13,                    !- Conductivity {W/m-K}
    2000.0,                  !- Density {kg/m3}
    1000.0,                  !- Specific Heat {J/kg-K}
    0.9,                     !- Thermal Absorptance
    0.6,                     !- Solar Absorptance
    0.6;                     !- Visible Absorptance

  Material,
    Floor/Roof Screed_0.07,  !- Name
    Rough,                   !- Roughness
    0.07,                    !- Thickness {m}
    0.41,                    !- Conductivity {W/m-K}
    1200.0,                  !- Density {kg/m3}
    840.0,                   !- Specific Heat {J/kg-K}
    0.9,                     !- Thermal Absorptance
    0.73,                    !- Solar Absorptance
    0.73;                    !- Visible Absorptance

  Material,
    Timber Flooring_0.03,    !- Name
    Rough,                   !- Roughness
    0.03,                    !- Thickness {m}
    0.14,                    !- Conductivity {W/m-K}
    650.0,                   !- Density {kg/m3}
    1200.0,                  !- Specific Heat {J/kg-K}
    0.9,                     !- Thermal Absorptance
    0.78,                    !- Solar Absorptance
    0.78;                    !- Visible Absorptance

  Material,
    Asphalt_0.01,            !- Name
    Rough,                   !- Roughness
    0.01,                    !- Thickness {m}
    0.7,                     !- Conductivity {W/m-K}
    2100.0,                  !- Density {kg/m3}
    1000.0,                  !- Specific Heat {J/kg-K}
    0.9,                     !- Thermal Absorptance
    0.85,                    !- Solar Absorptance
    0.9;                     !- Visible Absorptance

  Material,
    MW Glass Wool (rolls)_0.1445,  !- Name
    Rough,                   !- Roughness
    0.1445,                  !- Thickness {m}
    0.04,                    !- Conductivity {W/m-K}
    12.0,                    !- Density {kg/m3}
    840.0,                   !- Specific Heat {J/kg-K}
    0.9,                     !- Thermal Absorptance
    0.6,                     !- Solar Absorptance
    0.6;                     !- Visible Absorptance

  Material,
    Plasterboard_0.013,      !- Name
    Rough,                   !- Roughness
    0.013,                   !- Thickness {m}
    0.25,                    !- Conductivity {W/m-K}
    2800.0,                  !- Density {kg/m3}
    896.0,                   !- Specific Heat {J/kg-K}
    0.9,                     !- Thermal Absorptance
    0.5,                     !- Solar Absorptance
    0.5;                     !- Visible Absorptance

  Material,
    Brickwork Outer Leaf_0.1,!- Name
    Rough,                   !- Roughness
    0.1,                     !- Thickness {m}
    0.84,                    !- Conductivity {W/m-K}
    1700.0,                  !- Density {kg/m3}
    800.0,                   !- Specific Heat {J/kg-K}
    0.9,                     !- Thermal Absorptance
    0.7,                     !- Solar Absorptance
    0.7;                     !- Visible Absorptance

  Material,
    XPS Extruded Polystyrene  - CO2 Blowing_0.0795,  !- Name
    Rough,                   !- Roughness
    0.151,                   !- Thickness {m}
    0.034,                   !- Conductivity {W/m-K}
    35.0,                    !- Density {kg/m3}
    1400.0,                  !- Specific Heat {J/kg-K}
    0.9,                     !- Thermal Absorptance
    0.6,                     !- Solar Absorptance
    0.6;                     !- Visible Absorptance

  Material,
    Concrete Block (Medium)_0.1,  !- Name
    Rough,                   !- Roughness
    0.1,                     !- Thickness {m}
    0.51,                    !- Conductivity {W/m-K}
    1400.0,                  !- Density {kg/m3}
    1000.0,                  !- Specific Heat {J/kg-K}
    0.9,                     !- Thermal Absorptance
    0.6,                     !- Solar Absorptance
    0.6;                     !- Visible Absorptance

  Material,
    Gypsum Plastering_0.013, !- Name
    Rough,                   !- Roughness
    0.013,                   !- Thickness {m}
    0.4,                     !- Conductivity {W/m-K}
    1000.0,                  !- Density {kg/m3}
    1000.0,                  !- Specific Heat {J/kg-K}